07_CYME/Commonwealth 12-05-  9-14 loads (original).sxst_DSS/Lines.dss
New Line.263997299 Bus1=263997296.3     Bus2=261282305.3     LineCode=1/0-AL-TRXLPELCJ-15KV Phases= 1 Length=22.76  units=m
New Line.258896341 Phases= 3 Bus1=258896338.1.2.3 Bus2=258896343.1.2.3 Length=64.79  units=m  Spacing=8'-ARM-NON-CENTER-POST-3PH wires=['336-ACSR-WP-18X1' '336-ACSR-WP-18X1' '336-ACSR-WP-18X1' '336-ACSR-B-18X1']
New Line.263642066 Phases= 3 Bus1=263642063.1.2.3 Bus2=258896333.1.2.3 Length=33.70  units=m  Spacing=8'-ARM-STANDARD-3PH wires=['1/0-ACSR-B-6X1' '1/0-ACSR-B-6X1' '1/0-ACSR-B-6X1' '1/0-ACSR-B-6X1']
New Line.258907686 Phases= 1 Bus1=258907683.2     Bus2=258907688.2     Length=42.93  units=m  Spacing=VERTICAL-1-PH-60-1PH wires=['2-ACSR-B-6X1' '1/0-ACSR-B-6X1']
New Line.699624891 Phases= 1 Bus1=258904196.2     Bus2=699624889.2     Length=18.38  units=m  Spacing=VERTICAL-1-PH-60-1PH wires=['2-CU-B-7' '2-CU-B-7']
New Line.699603587 Phases= 3 Bus1=699603584.1.2.3 Bus2=258903960.1.2.3 Length=12.01  units=m  Spacing=8'-ARM-NON-CENTER-POST-3PH wires=['2-ACSR-B-6X1' '2-ACSR-B-6X1' '2-ACSR-B-6X1' '1/0-ACSR-B-6X1']
New Line.258904439 Phases= 1 Bus1=258904436.1     Bus2=258904441.1     Length=67.34  units=m  Spacing=VERTICAL-1-PH-60-1PH wires=['2-ACSR-B-6X1' '1/0-ACSR-B-6X1']
New Line.627235850 Phases= 3 Bus1=258896598.1.2.3 Bus2=258896613.1.2.3 Length=40.79  units=m  Spacing=8'-ARM-STANDARD-3PH wires=['336-AAC-B-19' '336-AAC-B-19' '336-AAC-B-19' '1/0-ACSR-B-6X1']
New Line.258908428 Phases= 1 Bus1=258908425.3     Bus2=258908430.3     Length=56.82  units=m  Spacing=VERTICAL-1-PH-60-1PH wires=['2-ACSR-B-6X1' '2-CU-WP-7']
New Line.263533109 Bus1=263533106.1.2.3 Bus2=260761136.1.2.3 LineCode=1/0-AL-HMWPECN-15KV Phases= 3 Length=21.85  units=m
New Line.699624652 Phases= 1 Bus1=699624649.3     Bus2=258904070.3     Length=13.79  units=m  Spacing=VERTICAL-1-PH-60-1PH wires=['2-ACSR-B-6X1' '1/0-ACSR-B-6X1']
New Line.258907711 Phases= 1 Bus1=258907708.3     Bus2=258907713.3     Length=56.18  units=m  Spacing=VERTICAL-1-PH-60-1PH wires=['6-CU-B-S' '6-CU-B-S']
New Line.263532857 Phases= 3 Bus1=263532854.1.2.3 Bus2=258904718.1.2.3 Length=60.39  units=m  Spacing=8'-ARM-NON-CENTER-POST-3PH wires=['2-ACSR-B-6X1' '2-ACSR-B-6X1' '2-ACSR-B-6X1' '1/0-ACSR-B-6X1']
New Line.263534320 Phases= 1 Bus1=258907906.2     Bus2=263534322.2     Length=1.52   units=m  Spacing=8'-ARM-NON-CENTER-POST-3PH wires=['4-ACSR-B-6X1' '2-CU-B-7']
New Line.263533194 Bus1=258904693.2     Bus2=263533196.2     LineCode=1/0-AL-HMWPECN-15KV Phases= 1 Length=1.52   units=m
New Line.258908027 Phases= 1 Bus1=258908022.2     Bus2=258908029.2     Length=103.90 units=m  Spacing=VERTICAL-1-PH-60-1PH wires=['2-ACSR-B-6X1' '1/0-ACSR-B-6X1']
New Line.260761226 Bus1=260761223.2     Bus2=260761213.2     LineCode=1/0-AL-TRXLPELCJ-15KV Phases= 1 Length=25.61  units=m
New Line.258896515 Phases= 3 Bus1=258896510.1.2.3 Bus2=258896517.1.2.3 Length=50.26  units=m  Spacing=8'-ARM-STANDARD-3PH wires=['336-AAC-B-19' '336-AAC-B-19' '336-AAC-B-19' '1/0-ACSR-B-6X1']
New Line.264281558 Bus1=260760205.1     Bus2=264281556.1     LineCode=1/0-AL-HMWPECN-15KV Phases= 1 Length=118.40 units=m
New Line.259157436 Phases= 1 Bus1=258904772.2     Bus2=258904783.2     Length=47.68  units=m  Spacing=VERTICAL-1-PH-60-1PH wires=['2-ACSR-B-6X1' '1/0-ACSR-B-6X1']
New Line.264381919 Phases= 3 Bus1=258903806.1.2.3 Bus2=264381917.1.2.3 Length=1.52   units=m  Spacing=8'-ARM-NON-CENTER-POST-3PH wires=['336-AAC-B-19' '336-AAC-B-19' '336-AAC-B-19' '1/0-ACSR-B-6X1']
New Line.258907933 Phases= 3 Bus1=258907928.1.2.3 Bus2=258907935.1.2.3 Length=40.36  units=m  Spacing=8'-ARM-NON-CENTER-POST-3PH wires=['4-ACSR-B-6X1' '4-ACSR-B-6X1' '4-ACSR-B-6X1' '2-CU-B-7']
New Line.258904711 Phases= 1 Bus1=258904708.3     Bus2=258904713.3     Length=27.94  units=m  Spacing=VERTICAL-1-PH-60-1PH wires=['2-ACSR-B-6X1' '2-ACSR-B-6X1']
New Line.263530673 Phases= 1 Bus1=258896427.3     Bus2=263530675.3     Length=1.53   units=m  Spacing=VERTICAL-1-PH-60-1PH wires=['4-CU-WP-7' '2-CU-WP-7']
New Line.699646219 Phases= 3 Bus1=699646216.1.2.3 Bus2=258904513.1.2.3 Length=32.89  units=m  Spacing=8'-ARM-NON-CENTER-POST-3PH wires=['1/0-ACSR-WP-6X1' '1/0-ACSR-WP-6X1' '1/0-ACSR-WP-6X1' '1/0-ACSR-B-6X1']
New Line.263534392 Bus1=258908452.1.2.3 Bus2=263534394.1.2.3 LineCode=1/0-AL-HMWPECN-15KV Phases= 3 Length=1.53   units=m
New Line.258903943 Phases= 3 Bus1=258903940.1.2.3 Bus2=258903945.1.2.3 Length=44.53  units=m  Spacing=8'-ARM-NON-CENTER-POST-3PH wires=['336-AAC-B-19' '336-AAC-B-19' '336-AAC-B-19' '1/0-ACSR-B-6X1']
New Line.263532848 Phases= 1 Bus1=263532845.3     Bus2=258907693.3     Length=48.15  units=m  Spacing=VERTICAL-1-PH-60-1PH wires=['6-CU-WP-7' '6-CU-WP-7']
New Line.263534324 Phases= 2 Bus1=258907906.1.3   Bus2=263534322.1.3   Length=1.52   units=m  Spacing=8'-ARM-NON-CENTER-POST-3PH wires=['4-ACSR-B-6X1' '4-ACSR-B-6X1' '2-CU-B-7']
New Line.258904496 Phases= 3 Bus1=258904493.1.2.3 Bus2=258904498.1.2.3 Length=69.30  units=m  Spacing=8'-ARM-NON-CENTER-POST-3PH wires=['1/0-ACSR-WP-6X1' '1/0-ACSR-WP-6X1' '1/0-ACSR-WP-6X1' '1/0-ACSR-B-6X1']
New Line.263530687 Bus1=263530684.1     Bus2=260762257.1     LineCode=1/0-AL-HMWPECN-15KV Phases= 1 Length=32.78  units=m
New Line.258908104 Phases= 1 Bus1=258908101.1     Bus2=258908106.1     Length=19.40  units=m  Spacing=VERTICAL-1-PH-60-1PH wires=['4-ACSR-B-6X1' '2-CU-B-7']
New Line.258896645 Phases= 3 Bus1=258896640.1.2.3 Bus2=258896647.1.2.3 Length=8.04   units=m  Spacing=8'-ARM-NON-CENTER-POST-3PH wires=['336-AAC-B-19' '336-AAC-B-19' '336-AAC-B-19' '1/0-ACSR-B-6X1']
New Line.699644087 Phases= 1 Bus1=258904313.2     Bus2=699644085.2     Length=46.82  units=m  Spacing=VERTICAL-1-PH-60-1PH wires=['2-ACSR-B-6X1' '1/0-ACSR-B-6X1']
New Line.264256742 Bus1=260761208.2     Bus2=264256740.2     LineCode=1/0-AL-TRXLPELCJ-15KV Phases= 1 Length=17.74  units=m
New Line.260761346 Bus1=260761343.1     Bus2=260761338.1     LineCode=1/0-AL-HMWPECN-15KV Phases= 1 Length=16.59  units=m
New Line.258907921 Phases= 3 Bus1=258907918.1.2.3 Bus2=258907923.1.2.3 Length=32.64  units=m  Spacing=8'-ARM-NON-CENTER-POST-3PH wires=['4-ACSR-B-6X1' '4-ACSR-B-6X1' '4-ACSR-B-6X1' '2-CU-B-7']
New Line.263532992 Bus1=263532989.1     Bus2=260761081.1     LineCode=1/0-AL-HMWPECN-15KV Phases= 1 Length=85.21  units=m
New Line.466941350 Phases= 3 Bus1=258896464.1.2.3 Bus2=466941352.1.2.3 Length=1.53   units=m  Spacing=8'-ARM-NON-CENTER-POST-3PH wires=['336-ACSR-WP-18X1' '336-ACSR-WP-18X1' '336-ACSR-WP-18X1' '336-ACSR-B-18X1']
New Line.258908263 Phases= 1 Bus1=258908220.2     Bus2=258908265.2     Length=22.54  units=m  Spacing=VERTICAL-1-PH-60-1PH wires=['4-CU-WP-7' '2-CU-WP-7']
New Line.258904281 Phases= 1 Bus1=258904278.2     Bus2=258904283.2     Length=57.47  units=m  Spacing=VERTICAL-1-PH-60-1PH wires=['2-ACSR-B-6X1' '1/0-ACSR-B-6X1']
New Line.258908119 Phases= 3 Bus1=258908116.1.2.3 Bus2=258908121.1.2.3 Length=19.85  units=m  Spacing=8'-ARM-NON-CENTER-POST-3PH wires=['4-ACSR-B-6X1' '4-ACSR-B-6X1' '4-ACSR-B-6X1' '2-CU-B-7']
New Line.258907780 Phases= 1 Bus1=258907777.2     Bus2=258907782.2     Length=18.20  units=m  Spacing=VERTICAL-1-PH-60-1PH wires=['4-ACSR-B-6X1' '1/0-ACSR-B-6X1']
New Line.263533086 Phases= 1 Bus1=258904367.1     Bus2=263533088.1     Length=1.52   units=m  Spacing=VERTICAL-1-PH-60-1PH wires=['2-ACSR-B-6X1' '1/0-ACSR-B-6X1']
New Line.258904491 Phases= 3 Bus1=258904488.1.2.3 Bus2=258904493.1.2.3 Length=29.88  units=m  Spacing=8'-ARM-NON-CENTER-POST-3PH wires=['1/0-ACSR-WP-6X1' '1/0-ACSR-WP-6X1' '1/0-ACSR-WP-6X1' '1/0-ACSR-B-6X1']
New Line.263532861 Phases= 3 Bus1=258903814.1.2.3 Bus2=263532863.1.2.3 Length=1.53   units=m  Spacing=8'-ARM-NON-CENTER-POST-3PH wires=['1/0-ACSR-B-6X1' '1/0-ACSR-B-6X1' '1/0-ACSR-B-6X1' '1/0-ACSR-B-6X1']
New Line.263534292 Phases= 2 Bus1=258907819.1.2   Bus2=263534294.1.2   Length=1.52   units=m  Spacing=8'-ARM-STANDARD-2PH wires=['4-CU-B-7' '4-CU-B-7' '2-CU-B-7']
New Line.258904271 Phases= 1 Bus1=258904268.2     Bus2=258904273.2     Length=23.76  units=m  Spacing=VERTICAL-1-PH-60-1PH wires=['2-ACSR-B-6X1' '1/0-ACSR-B-6X1']
New Line.699624910 Phases= 1 Bus1=699624907.2     Bus2=258904196.2     Length=22.64  units=m  Spacing=VERTICAL-1-PH-60-1PH wires=['4-CU-B-7' '2-CU-B-7']
New Line.258904469 Phases= 3 Bus1=258904466.1.2.3 Bus2=258904471.1.2.3 Length=34.92  units=m  Spacing=8'-ARM-NON-CENTER-POST-3PH wires=['1/0-ACSR-B-6X1' '1/0-ACSR-B-6X1' '1/0-ACSR-B-6X1' '1/0-ACSR-B-6X1']
New Line.258904501 Phases= 3 Bus1=258904498.1.2.3 Bus2=258904503.1.2.3 Length=61.17  units=m  Spacing=8'-ARM-NON-CENTER-POST-3PH wires=['1/0-ACSR-WP-6X1' '1/0-ACSR-WP-6X1' '1/0-ACSR-WP-6X1' '1/0-ACSR-B-6X1']
New Line.258896503 Phases= 3 Bus1=258896486.1.2.3 Bus2=258896505.1.2.3 Length=20.60  units=m  Spacing=8'-ARM-STANDARD-3PH wires=['336-AAC-B-19' '336-AAC-B-19' '336-AAC-B-19' '1/0-ACSR-B-6X1']
New Line.617632356 Bus1=617632353.2     Bus2=260761218.2     LineCode=1/0-AL-TRXLPELCJ-15KV Phases= 1 Length=19.43  units=m
New Line.258896537 Phases= 3 Bus1=258896538.1.2.3 Bus2=258896539.1.2.3 Length=128.80 units=m  Spacing=8'-ARM-STANDARD-3PH wires=['1/0-ACSR-B-6X1' '1/0-ACSR-B-6X1' '1/0-ACSR-B-6X1' '1/0-ACSR-B-6X1']
New Line.258903963 Phases= 3 Bus1=258903960.1.2.3 Bus2=258903965.1.2.3 Length=27.93  units=m  Spacing=8'-ARM-NON-CENTER-POST-3PH wires=['2-ACSR-B-6X1' '2-ACSR-B-6X1' '2-ACSR-B-6X1' '1/0-ACSR-B-6X1']
New Line.264256751 Bus1=260761188.1     Bus2=264256749.1     LineCode=1/0-AL-TRXLPELCJ-15KV Phases= 1 Length=23.89  units=m
New Line.263533181 Phases= 3 Bus1=263533178.1.2.3 Bus2=258904634.1.2.3 Length=24.91  units=m  Spacing=8'-ARM-NON-CENTER-POST-3PH wires=['2-ACSR-B-6X1' '2-ACSR-B-6X1' '2-ACSR-B-6X1' '2-ACSR-B-6X1']
New Line.637684708 Phases= 1 Bus1=637684705.2     Bus2=258907747.2     Length=20.46  units=m  Spacing=VERTICAL-1-PH-60-1PH wires=['6-CU-B-S' '6-CU-B-S']
New Line.699625107 Phases= 1 Bus1=263533070.1     Bus2=699625105.1     Length=35.21  units=m  Spacing=VERTICAL-1-PH-60-1PH wires=['4-ACSR-B-6X1' '2-CU-B-7']
New Line.258904476 Phases= 3 Bus1=258904471.1.2.3 Bus2=258904478.1.2.3 Length=29.00  units=m  Spacing=8'-ARM-NON-CENTER-POST-3PH wires=['1/0-ACSR-B-6X1' '1/0-ACSR-B-6X1' '1/0-ACSR-B-6X1' '1/0-ACSR-B-6X1']
New Line.699624857 Phases= 3 Bus1=699624854.1.2.3 Bus2=258903975.1.2.3 Length=25.35  units=m  Spacing=8'-ARM-NON-CENTER-POST-3PH wires=['2-ACSR-B-6X1' '2-ACSR-B-6X1' '2-ACSR-B-6X1' '1/0-ACSR-B-6X1']
New Line.258908191 Phases= 3 Bus1=258908188.1.2.3 Bus2=258908193.1.2.3 Length=34.90  units=m  Spacing=8'-ARM-NON-CENTER-POST-3PH wires=['4-CU-WP-7' '4-CU-WP-7' '4-CU-WP-7' '4-CU-B-7']
New Line.258907676 Phases= 1 Bus1=258907673.2     Bus2=258907678.2     Length=41.68  units=m  Spacing=VERTICAL-1-PH-60-1PH wires=['2-ACSR-B-6X1' '1/0-ACSR-B-6X1']
New Line.258904745 Phases= 3 Bus1=258903800.1.2.3 Bus2=258904747.1.2.3 Length=47.53  units=m  Spacing=8'-ARM-NON-CENTER-POST-3PH wires=['6-CU-B-S' '6-CU-B-S' '6-CU-B-S' '2-CU-B-7']
New Line.258908079 Phases= 1 Bus1=258908076.1     Bus2=258908081.1     Length=122.20 units=m  Spacing=VERTICAL-1-PH-60-1PH wires=['4-ACSR-B-6X1' '2-CU-B-7']
New Line.258896299 Phases= 3 Bus1=258896296.1.2.3 Bus2=258896301.1.2.3 Length=122.50 units=m  Spacing=8'-ARM-NON-CENTER-POST-3PH wires=['336-ACSR-WP-18X1' '336-ACSR-WP-18X1' '336-ACSR-WP-18X1' '336-ACSR-B-18X1']
New Line.627235905 Phases= 3 Bus1=258896583.1.2.3 Bus2=258896592.1.2.3 Length=46.47  units=m  Spacing=8'-ARM-STANDARD-3PH wires=['336-AAC-B-19' '336-AAC-B-19' '336-AAC-B-19' '1/0-ACSR-B-6X1']
New Line.259355403 Phases= 3 Bus1=259355404.1.2.3 Bus2=258896288.1.2.3 Length=91.05  units=m  Spacing=8'-ARM-STANDARD-3PH wires=['556-AAC-B-19' '556-AAC-B-19' '556-AAC-B-19' '556-AAC-B-19']
New Line.699624123 Phases= 1 Bus1=699624110.2     Bus2=699624121.2     Length=23.15  units=m  Spacing=VERTICAL-1-PH-60-1PH wires=['2-ACSR-B-6X1' '1/0-ACSR-B-6X1']
New Line.258907916 Phases= 3 Bus1=258907911.1.2.3 Bus2=258907918.1.2.3 Length=48.08  units=m  Spacing=8'-ARM-NON-CENTER-POST-3PH wires=['4-ACSR-B-6X1' '4-ACSR-B-6X1' '4-ACSR-B-6X1' '2-CU-B-7']
New Line.258904765 Phases= 1 Bus1=258904762.2     Bus2=258904767.2     Length=100.40 units=m  Spacing=VERTICAL-1-PH-60-1PH wires=['2-ACSR-B-6X1' '2-CU-B-7']
New Line.699624909 Phases= 1 Bus1=258904191.2     Bus2=699624907.2     Length=5.01   units=m  Spacing=VERTICAL-1-PH-60-1PH wires=['4-CU-B-7' '2-CU-B-7']
New Line.699625645 Phases= 3 Bus1=699625642.1.2.3 Bus2=258904343.1.2.3 Length=26.13  units=m  Spacing=8'-ARM-NON-CENTER-POST-3PH wires=['2-ACSR-B-6X1' '2-ACSR-B-6X1' '2-ACSR-B-6X1' '1/0-ACSR-B-6X1']
New Line.260761331 Bus1=260761328.1     Bus2=260761333.1     LineCode=1/0-AL-HMWPECN-15KV Phases= 1 Length=81.46  units=m
New Line.258908318 Phases= 1 Bus1=258908315.2     Bus2=258908320.2     Length=35.91  units=m  Spacing=VERTICAL-1-PH-60-1PH wires=['4-CU-WP-7' '1/0-ACSR-B-6X1']
New Line.699623036 Phases= 3 Bus1=699603805.1.2.3 Bus2=699623034.1.2.3 Length=22.20  units=m  Spacing=8'-ARM-NON-CENTER-POST-3PH wires=['1/0-ACSR-B-6X1' '1/0-ACSR-B-6X1' '1/0-ACSR-B-6X1' '1/0-ACSR-B-6X1']
New Line.258904598 Phases= 3 Bus1=258904595.1.2.3 Bus2=258904600.1.2.3 Length=22.87  units=m  Spacing=8'-ARM-NON-CENTER-POST-3PH wires=['2-ACSR-B-6X1' '2-ACSR-B-6X1' '2-ACSR-B-6X1' '2-ACSR-B-6X1']
New Line.260761151 Bus1=260761148.3     Bus2=260761153.3     LineCode=2-AL-HMWPECN-15KV Phases= 1 Length=37.82  units=m
New Line.699624266 Phases= 1 Bus1=699624251.2     Bus2=699624264.2     Length=15.15  units=m  Spacing=VERTICAL-1-PH-60-1PH wires=['2-ACSR-B-6X1' '1/0-ACSR-B-6X1']
New Line.258904377 Phases= 3 Bus1=258904374.1.2.3 Bus2=258904379.1.2.3 Length=24.84  units=m  Spacing=8'-ARM-NON-CENTER-POST-3PH wires=['2-ACSR-B-6X1' '2-ACSR-B-6X1' '2-ACSR-B-6X1' '1/0-ACSR-B-6X1']
New Line.260761221 Bus1=260761218.2     Bus2=260761223.2     LineCode=1/0-AL-TRXLPELCJ-15KV Phases= 1 Length=10.64  units=m
New Line.263533041 Phases= 1 Bus1=258904147.1     Bus2=263533043.1     Length=1.52   units=m  Spacing=VERTICAL-1-PH-60-1PH wires=['2-ACSR-B-6X1' '1/0-ACSR-B-6X1']
New Line.258908278 Phases= 1 Bus1=258908275.2     Bus2=258908280.2     Length=35.64  units=m  Spacing=VERTICAL-1-PH-60-1PH wires=['4-CU-WP-7' '1/0-ACSR-B-6X1']
New Line.258896287 Phases= 3 Bus1=258896288.1.2.3 Bus2=258896289.1.2.3 Length=82.22  units=m  Spacing=8'-ARM-NON-CENTER-POST-3PH wires=['336-ACSR-WP-18X1' '336-ACSR-WP-18X1' '336-ACSR-WP-18X1' '336-ACSR-B-18X1']
New Line.258907985 Phases= 1 Bus1=258907982.2     Bus2=258907987.2     Length=59.18  units=m  Spacing=VERTICAL-1-PH-60-1PH wires=['4-ACSR-B-6X1' '2-CU-B-7']
New Line.699624206 Phases= 1 Bus1=699624203.2     Bus2=258904075.2     Length=52.38  units=m  Spacing=VERTICAL-1-PH-60-1PH wires=['2-ACSR-B-6X1' '1/0-ACSR-B-6X1']
New Line.699603640 Phases= 3 Bus1=699603637.1.2.3 Bus2=258904206.1.2.3 Length=24.15  units=m  Spacing=8'-ARM-NON-CENTER-POST-3PH wires=['2-CU-B-7' '4-CU-B-7' '4-CU-B-7' '2-CU-B-7']
New Line.633960092 Phases= 3 Bus1=258896573.1.2.3 Bus2=633960094.1.2.3 Length=29.06  units=m  Spacing=8'-ARM-STANDARD-3PH wires=['1/0-ACSR-B-6X1' '1/0-ACSR-B-6X1' '1/0-ACSR-B-6X1' '1/0-ACSR-B-6X1']
New Line.258896304 Phases= 3 Bus1=258896301.1.2.3 Bus2=258896306.1.2.3 Length=82.58  units=m  Spacing=8'-ARM-NON-CENTER-POST-3PH wires=['336-ACSR-WP-18X1' '336-ACSR-WP-18X1' '336-ACSR-WP-18X1' '336-ACSR-B-18X1']
New Line.258896435 Phases= 3 Bus1=258896432.1.2.3 Bus2=258896437.1.2.3 Length=20.49  units=m  Spacing=8'-ARM-NON-CENTER-POST-3PH wires=['336-ACSR-WP-18X1' '336-ACSR-WP-18X1' '336-ACSR-WP-18X1' '336-ACSR-B-18X1']
New Line.263532933 Bus1=259562756.3     Bus2=263532935.3     LineCode=1/0-AL-TRXLPELCJ-15KV Phases= 1 Length=1.52   units=m
New Line.263532969 Bus1=258903935.1     Bus2=263532971.1     LineCode=1/0-AL-HMWPECN-15KV Phases= 1 Length=1.52   units=m
New Line.258904336 Phases= 1 Bus1=258904333.2     Bus2=258904338.2     Length=40.63  units=m  Spacing=VERTICAL-1-PH-60-1PH wires=['2-ACSR-B-6X1' '1/0-ACSR-B-6X1']
New Line.699646123 Phases= 3 Bus1=258904518.1.2.3 Bus2=699646121.1.2.3 Length=27.45  units=m  Spacing=8'-ARM-NON-CENTER-POST-3PH wires=['1/0-ACSR-WP-6X1' '1/0-ACSR-WP-6X1' '1/0-ACSR-WP-6X1' '2-CU-B-7']
New Line.699645908 Phases= 1 Bus1=699645905.1     Bus2=258904528.1     Length=28.80  units=m  Spacing=VERTICAL-1-PH-60-1PH wires=['2-ACSR-B-6X1' '1/0-ACSR-B-6X1']
New Line.699645828 Phases= 1 Bus1=699645825.3     Bus2=258904651.3     Length=56.52  units=m  Spacing=VERTICAL-1-PH-60-1PH wires=['4-CU-B-7' '2-CU-B-7']
New Line.263533113 Bus1=258904471.3     Bus2=263533115.3     LineCode=1/0-AL-TRXLPELCJ-15KV Phases= 1 Length=1.53   units=m
New Line.258896371 Phases= 3 Bus1=258896368.1.2.3 Bus2=258896373.1.2.3 Length=14.84  units=m  Spacing=8'-ARM-NON-CENTER-POST-3PH wires=['336-ACSR-WP-18X1' '336-ACSR-WP-18X1' '336-ACSR-WP-18X1' '336-ACSR-B-18X1']
New Line.259157441 Phases= 3 Bus1=258903990.1.2.3 Bus2=258903994.1.2.3 Length=6.32   units=m  Spacing=8'-ARM-NON-CENTER-POST-3PH wires=['2-ACSR-B-6X1' '2-ACSR-B-6X1' '2-ACSR-B-6X1' '1/0-ACSR-B-6X1']
New Line.258896581 Phases= 3 Bus1=258896578.1.2.3 Bus2=258896583.1.2.3 Length=38.14  units=m  Spacing=8'-ARM-STANDARD-3PH wires=['336-AAC-B-19' '336-AAC-B-19' '336-AAC-B-19' '1/0-ACSR-B-6X1']
New Line.258904296 Phases= 1 Bus1=258904293.2     Bus2=258904298.2     Length=68.51  units=m  Spacing=VERTICAL-1-PH-60-1PH wires=['2-ACSR-B-6X1' '1/0-ACSR-B-6X1']
New Line.263530750 Phases= 3 Bus1=263530747.1.2.3 Bus2=258907869.1.2.3 Length=29.27  units=m  Spacing=8'-ARM-STANDARD-3PH wires=['2-ACSR-B-6X1' '2-ACSR-B-6X1' '2-ACSR-B-6X1' '2-ACSR-B-6X1']
New Line.258904048 Phases= 1 Bus1=258904045.2     Bus2=258904050.2     Length=79.50  units=m  Spacing=VERTICAL-1-PH-60-1PH wires=['2-ACSR-B-6X1' '1/0-ACSR-B-6X1']
New Line.263974100 Phases= 1 Bus1=263974097.3     Bus2=259500718.3     Length=6.13   units=m  Spacing=VERTICAL-1-PH-104-1PH wires=['1/0-ACSR-B-6X1' '1/0-ACSR-B-6X1']
New Line.699646023 Phases= 1 Bus1=258904563.1     Bus2=699646021.1     Length=29.29  units=m  Spacing=VERTICAL-1-PH-60-1PH wires=['1/0-ACSR-WP-6X1' '1/0-ACSR-B-6X1']
New Line.699625241 Phases= 1 Bus1=699625238.2     Bus2=258904323.2     Length=14.27  units=m  Spacing=VERTICAL-1-PH-60-1PH wires=['2-ACSR-B-6X1' '1/0-ACSR-B-6X1']
New Line.263534379 Phases= 1 Bus1=263534376.2     Bus2=258908270.2     Length=16.12  units=m  Spacing=VERTICAL-1-PH-60-1PH wires=['4-CU-WP-7' '2-CU-WP-7']
New Line.699625097 Phases= 1 Bus1=699625094.1     Bus2=258904258.1     Length=27.95  units=m  Spacing=VERTICAL-1-PH-60-1PH wires=['4-ACSR-B-6X1' '2-CU-B-7']
New Line.264256769 Bus1=260761318.2     Bus2=264256767.2     LineCode=1/0-AL-HMWPECN-15KV Phases= 1 Length=36.30  units=m
New Line.263681992 Phases= 1 Bus1=263681989.2     Bus2=258904779.2     Length=30.89  units=m  Spacing=VERTICAL-1-PH-60-1PH wires=['2-ACSR-B-6X1' '1/0-ACSR-B-6X1']
New Line.258896383 Phases= 3 Bus1=258896378.1.2.3 Bus2=258896385.1.2.3 Length=30.95  units=m  Spacing=8'-ARM-NON-CENTER-POST-3PH wires=['336-ACSR-WP-18X1' '336-ACSR-WP-18X1' '336-ACSR-WP-18X1' '336-ACSR-B-18X1']
New Line.263534306 Phases= 1 Bus1=263534303.2     Bus2=258907881.2     Length=100.10 units=m  Spacing=VERTICAL-1-PH-60-1PH wires=['2-ACSR-B-6X1' '6-CU-WP-7']
New Line.263533199 Bus1=263533196.2     Bus2=260761318.2     LineCode=1/0-AL-HMWPECN-15KV Phases= 1 Length=76.14  units=m
New Line.263533032 Phases= 1 Bus1=258904005.3     Bus2=263533034.3     Length=1.52   units=m  Spacing=VERTICAL-1-PH-60-1PH wires=['2-ACSR-B-6X1' '1/0-ACSR-B-6X1']
New Line.263533127 Bus1=263533124.3     Bus2=260761243.3     LineCode=1/0-AL-TRXLPELCJ-15KV Phases= 1 Length=22.86  units=m
New Line.627235795 Phases= 3 Bus1=258896618.1.2.3 Bus2=627235797.1.2.3 Length=1.54   units=m  Spacing=8'-ARM-STANDARD-3PH wires=['336-AAC-B-19' '336-AAC-B-19' '336-AAC-B-19' '1/0-ACSR-B-6X1']
New Line.258903923 Phases= 3 Bus1=258903920.1.2.3 Bus2=258903925.1.2.3 Length=52.49  units=m  Spacing=8'-ARM-NON-CENTER-POST-3PH wires=['336-AAC-B-19' '336-AAC-B-19' '336-AAC-B-19' '1/0-ACSR-B-6X1']
New Line.258904686 Phases= 3 Bus1=258904678.1.2.3 Bus2=258904688.1.2.3 Length=63.99  units=m  Spacing=8'-ARM-NON-CENTER-POST-3PH wires=['1/0-ACSR-B-6X1' '1/0-ACSR-B-6X1' '1/0-ACSR-B-6X1' '1/0-ACSR-B-6X1']
New Line.260761186 Bus1=260761183.1     Bus2=260761188.1     LineCode=1/0-AL-TRXLPELCJ-15KV Phases= 1 Length=21.67  units=m
New Line.258907909 Phases= 3 Bus1=258907906.1.2.3 Bus2=258907911.1.2.3 Length=64.21  units=m  Spacing=8'-ARM-NON-CENTER-POST-3PH wires=['4-ACSR-B-6X1' '4-ACSR-B-6X1' '4-ACSR-B-6X1' '2-CU-B-7']
New Line.699625420 Phases= 3 Bus1=258904350.1.2.3 Bus2=699625418.1.2.3 Length=7.37   units=m  Spacing=8'-ARM-NON-CENTER-POST-3PH wires=['2-ACSR-B-6X1' '2-ACSR-B-6X1' '2-ACSR-B-6X1' '1/0-ACSR-B-6X1']
New Line.258907970 Phases= 3 Bus1=258907965.1.2.3 Bus2=258907972.1.2.3 Length=55.89  units=m  Spacing=8'-ARM-NON-CENTER-POST-3PH wires=['4-ACSR-B-6X1' '4-ACSR-B-6X1' '4-ACSR-B-6X1' '2-CU-B-7']
New Line.258904644 Phases= 1 Bus1=258904641.3     Bus2=258904646.3     Length=25.36  units=m  Spacing=VERTICAL-1-PH-60-1PH wires=['4-CU-B-7' '2-CU-B-7']
New Line.258908388 Phases= 1 Bus1=258908385.1     Bus2=258908390.1     Length=65.05  units=m  Spacing=VERTICAL-1-PH-60-1PH wires=['4-CU-WP-7' '2-CU-WP-7']
New Line.258904159 Phases= 1 Bus1=258904154.3     Bus2=258904161.3     Length=70.60  units=m  Spacing=VERTICAL-1-PH-60-1PH wires=['2-ACSR-B-6X1' '1/0-ACSR-B-6X1']
New Line.258896508 Phases= 3 Bus1=258896505.1.2.3 Bus2=258896510.1.2.3 Length=126.10 units=m  Spacing=8'-ARM-STANDARD-3PH wires=['336-AAC-B-19' '336-AAC-B-19' '336-AAC-B-19' '1/0-ACSR-B-6X1']
New Line.263534329 Phases= 3 Bus1=258907950.1.2.3 Bus2=263534331.1.2.3 Length=1.52   units=m  Spacing=8'-ARM-NON-CENTER-POST-3PH wires=['4-ACSR-B-6X1' '4-ACSR-B-6X1' '4-ACSR-B-6X1' '2-CU-B-7']
New Line.258907760 Phases= 1 Bus1=258907752.2     Bus2=258907762.2     Length=72.91  units=m  Spacing=VERTICAL-1-PH-60-1PH wires=['4-ACSR-B-6X1' '1/0-ACSR-B-6X1']
New Line.263530678 Phases= 1 Bus1=263530675.3     Bus2=258908415.3     Length=75.78  units=m  Spacing=VERTICAL-1-PH-60-1PH wires=['4-CU-WP-7' '2-CU-WP-7']
New Line.263681960 Phases= 1 Bus1=258896454.1     Bus2=263681962.1     Length=1.53   units=m  Spacing=VERTICAL-1-PH-60-1PH wires=['4-CU-WP-7' '4-CU-WP-7']
New Line.699603854 Phases= 3 Bus1=699603841.1.2.3 Bus2=699603852.1.2.3 Length=37.53  units=m  Spacing=8'-ARM-NON-CENTER-POST-3PH wires=['336-AAC-B-19' '336-AAC-B-19' '336-AAC-B-19' '1/0-ACSR-B-6X1']
New Line.699603639 Phases= 3 Bus1=263532926.1.2.3 Bus2=699603637.1.2.3 Length=32.35  units=m  Spacing=8'-ARM-NON-CENTER-POST-3PH wires=['2-CU-B-7' '4-CU-B-7' '4-CU-B-7' '2-CU-B-7']
New Line.258908418 Phases= 1 Bus1=258908415.3     Bus2=258908420.3     Length=64.14  units=m  Spacing=VERTICAL-1-PH-60-1PH wires=['4-CU-WP-7' '2-CU-WP-7']
New Line.263533014 Phases= 1 Bus1=258903990.2     Bus2=263533016.2     Length=1.52   units=m  Spacing=VERTICAL-1-PH-60-1PH wires=['2-ACSR-B-6X1' '1/0-ACSR-B-6X1']
New Line.263879215 Bus1=263879212.3     Bus2=260984962.3     LineCode=1/0-AL-TRXLPELCJ-15KV Phases= 1 Length=16.65  units=m
New Line.263532996 Bus1=258903945.2     Bus2=263532998.2     LineCode=1/0-AL-HMWPECN-15KV Phases= 1 Length=1.52   units=m
New Line.258907832 Phases= 1 Bus1=258907824.2     Bus2=258907834.2     Length=50.85  units=m  Spacing=VERTICAL-1-PH-60-1PH wires=['4-CU-B-7' '2-CU-B-7']
New Line.258903988 Phases= 3 Bus1=258903985.1.2.3 Bus2=258903990.1.2.3 Length=31.91  units=m  Spacing=8'-ARM-NON-CENTER-POST-3PH wires=['2-ACSR-B-6X1' '2-ACSR-B-6X1' '2-ACSR-B-6X1' '1/0-ACSR-B-6X1']
New Line.699625515 Phases= 3 Bus1=699625512.1.2.3 Bus2=258904391.1.2.3 Length=29.28  units=m  Spacing=8'-ARM-NON-CENTER-POST-3PH wires=['2-ACSR-B-6X1' '2-ACSR-B-6X1' '2-ACSR-B-6X1' '2-ACSR-B-6X1']
New Line.258896408 Phases= 3 Bus1=258896405.1.2.3 Bus2=258896410.1.2.3 Length=15.17  units=m  Spacing=8'-ARM-NON-CENTER-POST-3PH wires=['336-ACSR-WP-18X1' '336-ACSR-WP-18X1' '336-ACSR-WP-18X1' '336-ACSR-B-18X1']
New Line.258904098 Phases= 1 Bus1=258904095.2     Bus2=258904100.2     Length=61.05  units=m  Spacing=VERTICAL-1-PH-60-1PH wires=['2-ACSR-B-6X1' '1/0-ACSR-B-6X1']
New Line.258908074 Phases= 1 Bus1=258908071.1     Bus2=258908076.1     Length=33.09  units=m  Spacing=VERTICAL-1-PH-60-1PH wires=['4-ACSR-B-6X1' '2-CU-B-7']
New Line.263530700 Bus1=258896544.1     Bus2=263530702.1     LineCode=1/0-AL-HMWPECN-15KV Phases= 1 Length=1.53   units=m
New Line.275423519 Phases= 3 Bus1=258896493.1.2.3 Bus2=258908167.1.2.3 Length=71.27  units=m  Spacing=8'-ARM-STANDARD-3PH wires=['336-AAC-B-19' '336-AAC-B-19' '336-AAC-B-19' '1/0-ACSR-B-6X1']
New Line.263533244 Phases= 1 Bus1=263533241.2     Bus2=258904757.2     Length=66.40  units=m  Spacing=VERTICAL-1-PH-60-1PH wires=['2-ACSR-B-6X1' '2-CU-WP-7']
New Line.263533077 Bus1=258904350.3     Bus2=263533079.3     LineCode=1/0-AL-HMWPECN-15KV Phases= 1 Length=1.53   units=m
New Line.260761276 Bus1=258903848.3     Bus2=260761278.3     LineCode=1/0-AL-HMWPECN-15KV Phases= 1 Length=53.39  units=m
New Line.260761206 Bus1=260761203.2     Bus2=260761208.2     LineCode=1/0-AL-TRXLPELCJ-15KV Phases= 1 Length=18.58  units=m
New Line.263974095 Phases= 1 Bus1=258908044.3     Bus2=263974097.3     Length=1.53   units=m  Spacing=VERTICAL-1-PH-104-1PH wires=['1/0-ACSR-B-6X1' '1/0-ACSR-B-6X1']
New Line.258908037 Phases= 1 Bus1=258908034.2     Bus2=258908039.2     Length=19.02  units=m  Spacing=VERTICAL-1-PH-60-1PH wires=['2-ACSR-B-6X1' '1/0-CU-B-7']
New Line.258904301 Phases= 1 Bus1=258904298.2     Bus2=258904303.2     Length=27.96  units=m  Spacing=VERTICAL-1-PH-60-1PH wires=['2-ACSR-B-6X1' '1/0-ACSR-B-6X1']
New Line.466941332 Phases= 3 Bus1=258896348.1.2.3 Bus2=466941334.1.2.3 Length=1.53   units=m  Spacing=8'-ARM-NON-CENTER-POST-3PH wires=['336-ACSR-WP-18X1' '336-ACSR-WP-18X1' '336-ACSR-WP-18X1' '336-ACSR-B-18X1']
New Line.699624872 Phases= 3 Bus1=699624869.1.2.3 Bus2=699624854.1.2.3 Length=29.51  units=m  Spacing=8'-ARM-NON-CENTER-POST-3PH wires=['2-ACSR-B-6X1' '2-ACSR-B-6X1' '2-ACSR-B-6X1' '1/0-ACSR-B-6X1']
New Line.699625681 Phases= 3 Bus1=699625678.1.2.3 Bus2=258904216.1.2.3 Length=20.13  units=m  Spacing=8'-ARM-NON-CENTER-POST-3PH wires=['2-CU-B-7' '4-CU-B-7' '4-CU-B-7' '2-CU-B-7']
New Line.258908308 Phases= 1 Bus1=258908305.2     Bus2=258908310.2     Length=74.58  units=m  Spacing=VERTICAL-1-PH-60-1PH wires=['4-CU-WP-7' '4-CU-WP-7']
New Line.258908124 Phases= 3 Bus1=258908121.1.2.3 Bus2=258908126.1.2.3 Length=53.92  units=m  Spacing=8'-ARM-NON-CENTER-POST-3PH wires=['4-ACSR-B-6X1' '4-ACSR-B-6X1' '4-ACSR-B-6X1' '2-CU-B-7']
New Line.258904224 Phases= 3 Bus1=258904216.1.2.3 Bus2=258904226.1.2.3 Length=22.12  units=m  Spacing=8'-ARM-NON-CENTER-POST-3PH wires=['2-CU-B-7' '4-CU-B-7' '4-CU-B-7' '2-CU-B-7']
New Line.458944741 Phases= 3 Bus1=258896395.1.2.3 Bus2=458944739.1.2.3 Length=29.75  units=m  Spacing=8'-ARM-NON-CENTER-POST-3PH wires=['336-ACSR-WP-18X1' '336-ACSR-WP-18X1' '336-ACSR-WP-18X1' '336-ACSR-B-18X1']
New Line.258907817 Phases= 2 Bus1=258907809.1.2   Bus2=258907819.1.2   Length=14.80  units=m  Spacing=8'-ARM-STANDARD-2PH wires=['4-CU-B-7' '4-CU-B-7' '4-CU-B-7']
New Line.258904246 Phases= 1 Bus1=258904243.1     Bus2=258904248.1     Length=40.31  units=m  Spacing=VERTICAL-1-PH-60-1PH wires=['4-ACSR-B-6X1' '2-CU-B-7']
New Line.258908223 Phases= 1 Bus1=258908215.1     Bus2=258908225.1     Length=35.87  units=m  Spacing=VERTICAL-1-PH-60-1PH wires=['2-ACSR-B-6X1' '4-ACSR-B-6X1']
New Line.258904681 Phases= 1 Bus1=258904678.1     Bus2=258904683.1     Length=23.41  units=m  Spacing=VERTICAL-1-PH-60-1PH wires=['2-ACSR-B-6X1' '2-ACSR-B-6X1']
New Line.260761119 Bus1=260761116.3     Bus2=260761121.3     LineCode=1/0-AL-TRXLPELCJ-15KV Phases= 1 Length=112.00 units=m
New Line.258904760 Phases= 1 Bus1=258904757.2     Bus2=258904762.2     Length=126.20 units=m  Spacing=VERTICAL-1-PH-60-1PH wires=['2-ACSR-B-6X1' '1/0-ACSR-B-6X1']
New Line.699645827 Phases= 1 Bus1=258904646.3     Bus2=699645825.3     Length=64.05  units=m  Spacing=VERTICAL-1-PH-60-1PH wires=['4-CU-B-7' '2-CU-B-7']
New Line.263533239 Phases= 1 Bus1=258904752.2     Bus2=263533241.2     Length=1.52   units=m  Spacing=VERTICAL-1-PH-60-1PH wires=['2-ACSR-B-6X1' '2-CU-WP-7']
New Line.699625240 Phases= 1 Bus1=258904318.2     Bus2=699625238.2     Length=16.69  units=m  Spacing=VERTICAL-1-PH-60-1PH wires=['2-ACSR-B-6X1' '1/0-ACSR-B-6X1']
New Line.699645907 Phases= 1 Bus1=699645894.1     Bus2=699645905.1     Length=21.68  units=m  Spacing=VERTICAL-1-PH-60-1PH wires=['2-ACSR-B-6X1' '1/0-ACSR-B-6X1']
New Line.263534325 Phases= 3 Bus1=263534322.1.2.3 Bus2=258908116.1.2.3 Length=19.45  units=m  Spacing=8'-ARM-NON-CENTER-POST-3PH wires=['4-ACSR-B-6X1' '4-ACSR-B-6X1' '4-ACSR-B-6X1' '2-CU-B-7']
New Line.264256630 Bus1=264256632.1.2.3 Bus2=260760193.1.2.3 LineCode=350-AL-XLPEDWJ-15KV Phases= 3 Length=1.52   units=m
New Line.258896576 Phases= 3 Bus1=258896573.1.2.3 Bus2=258896578.1.2.3 Length=52.88  units=m  Spacing=8'-ARM-STANDARD-3PH wires=['336-AAC-B-19' '336-AAC-B-19' '336-AAC-B-19' '1/0-ACSR-B-6X1']
New Line.258907963 Phases= 3 Bus1=258907960.1.2.3 Bus2=258907965.1.2.3 Length=23.02  units=m  Spacing=8'-ARM-NON-CENTER-POST-3PH wires=['4-ACSR-B-6X1' '4-ACSR-B-6X1' '4-ACSR-B-6X1' '2-CU-B-7']
New Line.699645090 Phases= 1 Bus1=699645087.2     Bus2=258904268.2     Length=11.02  units=m  Spacing=VERTICAL-1-PH-60-1PH wires=['2-ACSR-B-6X1' '2-CU-B-7']
New Line.258903851 Phases= 3 Bus1=258903838.1.2.3 Bus2=258903853.1.2.3 Length=20.24  units=m  Spacing=8'-ARM-NON-CENTER-POST-3PH wires=['336-AAC-B-19' '336-AAC-B-19' '336-AAC-B-19' '1/0-ACSR-B-6X1']
New Line.258904123 Phases= 3 Bus1=258904120.1.2.3 Bus2=258904125.1.2.3 Length=25.58  units=m  Spacing=8'-ARM-STANDARD-3PH wires=['2-ACSR-B-6X1' '2-ACSR-B-6X1' '2-ACSR-B-6X1' '1/0-ACSR-B-6X1']
New Line.699646024 Phases= 1 Bus1=699646021.1     Bus2=258904568.1     Length=37.37  units=m  Spacing=VERTICAL-1-PH-60-1PH wires=['1/0-ACSR-WP-6X1' '1/0-ACSR-B-6X1']
New Line.258896532 Phases= 3 Bus1=258896529.1.2.3 Bus2=258896534.1.2.3 Length=23.37  units=m  Spacing=8'-ARM-STANDARD-3PH wires=['336-AAC-B-19' '336-AAC-B-19' '336-AAC-B-19' '1/0-ACSR-B-6X1']
New Line.699624238 Phases= 1 Bus1=258904080.2     Bus2=699624236.2     Length=38.59  units=m  Spacing=VERTICAL-1-PH-60-1PH wires=['2-ACSR-B-6X1' '1/0-ACSR-B-6X1']
New Line.258907847 Phases= 1 Bus1=258907844.1     Bus2=258907849.1     Length=20.82  units=m  Spacing=VERTICAL-1-PH-60-1PH wires=['4-CU-B-7' '2-CU-B-7']
New Line.258908084 Phases= 1 Bus1=258908076.1     Bus2=258908086.1     Length=35.45  units=m  Spacing=VERTICAL-1-PH-60-1PH wires=['4-ACSR-B-6X1' '2-CU-B-7']
New Line.260761181 Bus1=260761178.1     Bus2=260761183.1     LineCode=1/0-AL-TRXLPELCJ-15KV Phases= 1 Length=12.64  units=m
New Line.699623269 Phases= 1 Bus1=699623266.2     Bus2=258907663.2     Length=56.76  units=m  Spacing=VERTICAL-1-PH-60-1PH wires=['2-ACSR-B-6X1' '1/0-ACSR-B-6X1']
New Line.263530727 Phases= 3 Bus1=258896623.1.2.3 Bus2=263530729.1.2.3 Length=1.52   units=m  Spacing=8'-ARM-STANDARD-3PH wires=['2-ACSR-B-6X1' '2-ACSR-B-6X1' '2-ACSR-B-6X1' '1/0-ACSR-B-6X1']
New Line.263532897 Phases= 1 Bus1=258903893.1     Bus2=263532899.1     Length=1.52   units=m  Spacing=VERTICAL-1-PH-60-1PH wires=['2-ACSR-B-6X1' '1/0-ACSR-B-6X1']
New Line.699603807 Phases= 3 Bus1=263532863.1.2.3 Bus2=699603805.1.2.3 Length=7.56   units=m  Spacing=8'-ARM-NON-CENTER-POST-3PH wires=['1/0-ACSR-B-6X1' '1/0-ACSR-B-6X1' '1/0-ACSR-B-6X1' '1/0-ACSR-B-6X1']
New Line.263533010 Phases= 3 Bus1=263533007.1.2.3 Bus2=258904120.1.2.3 Length=15.63  units=m  Spacing=8'-ARM-STANDARD-3PH wires=['2-ACSR-B-6X1' '2-ACSR-B-6X1' '2-ACSR-B-6X1' '1/0-ACSR-B-6X1']
New Line.699625096 Phases= 1 Bus1=258904253.1     Bus2=699625094.1     Length=44.61  units=m  Spacing=VERTICAL-1-PH-60-1PH wires=['4-ACSR-B-6X1' '2-CU-B-7']
New Line.258896356 Phases= 3 Bus1=258896353.1.2.3 Bus2=258896358.1.2.3 Length=18.73  units=m  Spacing=8'-ARM-NON-CENTER-POST-3PH wires=['336-ACSR-WP-18X1' '336-ACSR-WP-18X1' '336-ACSR-WP-18X1' '336-ACSR-B-18X1']
New Line.263533023 Phases= 1 Bus1=258904000.2     Bus2=263533025.2     Length=1.52   units=m  Spacing=VERTICAL-1-PH-60-1PH wires=['2-ACSR-B-6X1' '1/0-ACSR-B-6X1']
New Line.258896388 Phases= 3 Bus1=258896385.1.2.3 Bus2=258896390.1.2.3 Length=2.90   units=m  Spacing=8'-ARM-NON-CENTER-POST-3PH wires=['336-ACSR-WP-18X1' '336-ACSR-WP-18X1' '336-ACSR-WP-18X1' '336-ACSR-B-18X1']
New Line.466941356 Phases= 3 Bus1=466941352.1.2.3 Bus2=258896469.1.2.3 Length=24.52  units=m  Spacing=8'-ARM-NON-CENTER-POST-3PH wires=['336-ACSR-WP-18X1' '336-ACSR-WP-18X1' '336-ACSR-WP-18X1' '336-ACSR-B-18X1']
New Line.617632322 Bus1=617632319.2     Bus2=260761198.2     LineCode=1/0-AL-TRXLPELCJ-15KV Phases= 1 Length=15.12  units=m
New Line.263532888 Phases= 1 Bus1=258903878.1     Bus2=263532890.1     Length=1.53   units=m  Spacing=VERTICAL-1-PH-60-1PH wires=['1/0-ACSR-WP-6X1' '1/0-ACSR-B-6X1']
New Line.263533122 Bus1=258904478.3     Bus2=263533124.3     LineCode=1/0-AL-TRXLPELCJ-15KV Phases= 1 Length=1.53   units=m
New Line.258896559 Phases= 3 Bus1=258896534.1.2.3 Bus2=258896561.1.2.3 Length=23.09  units=m  Spacing=8'-ARM-STANDARD-3PH wires=['336-AAC-B-19' '336-AAC-B-19' '336-AAC-B-19' '1/0-ACSR-B-6X1']
New Line.263682005 Phases= 3 Bus1=258903994.1.2.3 Bus2=263682007.1.2.3 Length=1.53   units=m  Spacing=8'-ARM-NON-CENTER-POST-3PH wires=['2-ACSR-B-6X1' '2-ACSR-B-6X1' '2-ACSR-B-6X1' '1/0-ACSR-B-6X1']
New Line.263533001 Bus1=263532998.2     Bus2=260761071.2     LineCode=1/0-AL-HMWPECN-15KV Phases= 1 Length=51.75  units=m
New Line.264308712 Bus1=260761106.2     Bus2=264308710.2     LineCode=1/0-AL-HMWPECN-15KV Phases= 1 Length=48.86  units=m
New Line.263530723 Bus1=263530720.1.2.3 Bus2=260760188.1.2.3 LineCode=350-AL-XLPEDWJ-15KV Phases= 3 Length=106.30 units=m
New Line.716733252 Phases= 3 Bus1=716733211.1.2.3 Bus2=716733250.1.2.3 Length=16.77  units=m  Spacing=8'-ARM-NON-CENTER-POST-3PH wires=['336-AAC-B-19' '336-AAC-B-19' '336-AAC-B-19' '1/0-ACSR-B-6X1']
...
